<additional>
	<edgeData id="edge_traffic" file="edge_traffic.xml" freq="300"/>
</additional>