<?xml version="1.0" encoding="UTF-8"?>

<!-- generated on 04/20/22 10:11:16 by Eclipse SUMO netedit Version 1.8.0
<configuration xmlns:xsi="http://www.w3.org/2001/XMLSchema-instance" xsi:noNamespaceSchemaLocation="http://sumo.dlr.de/xsd/netconvertConfiguration.xsd">

    <input>
        <sumo-net-file value="S:\Documents\graduate_paper\research\chonqing_simulation\sumo_matlab\map.net.xml"/>
    </input>

    <output>
        <output-file value="S:\Documents\graduate_paper\research\chonqing_simulation\sumo_matlab\map.net.xml"/>
    </output>

    <processing>
        <geometry.min-radius.fix.railways value="false"/>
        <geometry.max-grade.fix value="false"/>
        <offset.disable-normalization value="true"/>
        <lefthand value="false"/>
    </processing>

    <junctions>
        <no-turnarounds value="true"/>
        <junctions.corner-detail value="5"/>
        <junctions.limit-turn-speed value="5.5"/>
        <rectangular-lane-cut value="false"/>
    </junctions>

    <pedestrian>
        <walkingareas value="false"/>
    </pedestrian>

    <report>
        <aggregate-warnings value="5"/>
    </report>

</configuration>
-->

<net version="1.6" junctionCornerDetail="5" limitTurnSpeed="5.50" xmlns:xsi="http://www.w3.org/2001/XMLSchema-instance" xsi:noNamespaceSchemaLocation="http://sumo.dlr.de/xsd/net_file.xsd">

    <location netOffset="-612260.22,-3264803.63" convBoundary="-7.14,4085.86,72452.75,11797.39" origBoundary="106.158780,29.498540,107.058170,29.612136" projParameter="+proj=utm +zone=48 +ellps=WGS84 +datum=WGS84 +units=m +no_defs"/>

    <type id="highway.bridleway" priority="1" numLanes="1" speed="2.78" allow="pedestrian" oneway="1" width="2.00"/>
    <type id="highway.bus_guideway" priority="1" numLanes="1" speed="27.78" allow="bus" oneway="1"/>
    <type id="highway.cycleway" priority="1" numLanes="1" speed="8.33" allow="bicycle" oneway="1" width="1.00"/>
    <type id="highway.footway" priority="1" numLanes="1" speed="2.78" allow="pedestrian" oneway="1" width="2.00"/>
    <type id="highway.ford" priority="1" numLanes="1" speed="2.78" allow="army" oneway="1"/>
    <type id="highway.living_street" priority="2" numLanes="1" speed="2.78" disallow="tram rail_urban rail rail_electric rail_fast ship" oneway="1"/>
    <type id="highway.motorway" priority="14" numLanes="2" speed="39.44" allow="private emergency authority army vip passenger hov taxi bus coach delivery truck trailer motorcycle evehicle custom1 custom2" oneway="1"/>
    <type id="highway.motorway_link" priority="9" numLanes="1" speed="22.22" allow="private emergency authority army vip passenger hov taxi bus coach delivery truck trailer motorcycle evehicle custom1 custom2" oneway="1"/>
    <type id="highway.path" priority="1" numLanes="1" speed="2.78" allow="pedestrian bicycle" oneway="1" width="2.00"/>
    <type id="highway.pedestrian" priority="1" numLanes="1" speed="2.78" allow="pedestrian" oneway="1" width="2.00"/>
    <type id="highway.primary" priority="12" numLanes="2" speed="27.78" disallow="tram rail_urban rail rail_electric rail_fast ship" oneway="1"/>
    <type id="highway.primary_link" priority="7" numLanes="1" speed="22.22" disallow="tram rail_urban rail rail_electric rail_fast ship" oneway="1"/>
    <type id="highway.raceway" priority="15" numLanes="2" speed="83.33" allow="vip" oneway="1"/>
    <type id="highway.residential" priority="3" numLanes="1" speed="13.89" disallow="tram rail_urban rail rail_electric rail_fast ship" oneway="1"/>
    <type id="highway.secondary" priority="11" numLanes="1" speed="27.78" disallow="tram rail_urban rail rail_electric rail_fast ship" oneway="1"/>
    <type id="highway.secondary_link" priority="6" numLanes="1" speed="22.22" disallow="tram rail_urban rail rail_electric rail_fast ship" oneway="1"/>
    <type id="highway.service" priority="1" numLanes="1" speed="5.56" allow="pedestrian delivery bicycle" oneway="1"/>
    <type id="highway.stairs" priority="1" numLanes="1" speed="1.39" allow="pedestrian" oneway="1" width="2.00"/>
    <type id="highway.step" priority="1" numLanes="1" speed="1.39" allow="pedestrian" oneway="1" width="2.00"/>
    <type id="highway.steps" priority="1" numLanes="1" speed="1.39" allow="pedestrian" oneway="1" width="2.00"/>
    <type id="highway.tertiary" priority="10" numLanes="1" speed="22.22" disallow="tram rail_urban rail rail_electric rail_fast ship" oneway="1"/>
    <type id="highway.tertiary_link" priority="5" numLanes="1" speed="22.22" disallow="tram rail_urban rail rail_electric rail_fast ship" oneway="1"/>
    <type id="highway.track" priority="1" numLanes="1" speed="5.56" allow="pedestrian motorcycle moped bicycle" oneway="1"/>
    <type id="highway.trunk" priority="13" numLanes="2" speed="27.78" disallow="pedestrian bicycle tram rail_urban rail rail_electric rail_fast ship" oneway="1"/>
    <type id="highway.trunk_link" priority="8" numLanes="1" speed="22.22" disallow="pedestrian bicycle tram rail_urban rail rail_electric rail_fast ship" oneway="1"/>
    <type id="highway.unclassified" priority="4" numLanes="1" speed="13.89" disallow="tram rail_urban rail rail_electric rail_fast ship" oneway="1"/>
    <type id="highway.unsurfaced" priority="1" numLanes="1" speed="8.33" disallow="tram rail_urban rail rail_electric rail_fast ship" oneway="1"/>
    <type id="railway.highspeed" priority="21" numLanes="1" speed="69.44" allow="rail_fast" oneway="1"/>
    <type id="railway.light_rail" priority="19" numLanes="1" speed="27.78" allow="rail_urban" oneway="1"/>
    <type id="railway.preserved" priority="16" numLanes="1" speed="27.78" allow="rail" oneway="1"/>
    <type id="railway.rail" priority="20" numLanes="1" speed="44.44" allow="rail" oneway="1"/>
    <type id="railway.subway" priority="18" numLanes="1" speed="27.78" allow="rail_urban" oneway="1"/>
    <type id="railway.tram" priority="17" numLanes="1" speed="13.89" allow="tram" oneway="1"/>

    <edge id=":-101752_0" function="internal">
        <lane id=":-101752_0_0" index="0" disallow="tram rail_urban rail rail_electric rail_fast ship" speed="3.90" length="2.58" shape="-1.46,5301.81 -0.91,5301.36 -0.64,5300.84 -0.65,5300.26 -0.92,5299.61"/>
    </edge>
    <edge id=":-101803_0" function="internal">
        <lane id=":-101803_0_0" index="0" disallow="tram rail_urban rail rail_electric rail_fast ship" speed="11.11" length="0.23" shape="899.97,5298.81 900.04,5298.81 900.08,5298.81 900.13,5298.81 900.20,5298.80"/>
    </edge>
    <edge id=":-101927_0" function="internal">
        <lane id=":-101927_0_0" index="0" disallow="tram rail_urban rail rail_electric rail_fast ship" speed="3.96" length="3.75" shape="2490.97,5743.59 2490.97,5744.72 2491.33,5745.38 2492.05,5745.57 2493.14,5745.31"/>
    </edge>
    <edge id=":-101927_1" function="internal">
        <lane id=":-101927_1_0" index="0" disallow="tram rail_urban rail rail_electric rail_fast ship" speed="6.19" length="11.25" shape="2487.80,5743.15 2487.78,5746.52 2488.86,5748.50 2491.04,5749.09 2494.31,5748.28"/>
    </edge>
    <edge id=":-101958_0" function="internal">
        <lane id=":-101958_0_0" index="0" disallow="tram rail_urban rail rail_electric rail_fast ship" speed="6.36" length="9.04" shape="2723.50,6298.94 2721.17,6299.85 2719.74,6301.28 2719.22,6303.23 2719.61,6305.70"/>
    </edge>
    <edge id=":-101973_0" function="internal">
        <lane id=":-101973_0_0" index="0" disallow="tram rail_urban rail rail_electric rail_fast ship" speed="5.87" length="9.11" shape="2627.94,6619.02 2626.91,6621.45 2627.06,6623.36 2628.39,6624.73 2630.91,6625.56"/>
    </edge>
    <edge id=":-101973_1" function="internal">
        <lane id=":-101973_1_0" index="0" disallow="tram rail_urban rail rail_electric rail_fast ship" speed="6.76" length="12.52" shape="2627.94,6619.02 2626.22,6622.75 2626.04,6625.61 2627.41,6627.60 2630.33,6628.71"/>
    </edge>
    <edge id=":-102006_0" function="internal">
        <lane id=":-102006_0_0" index="0" disallow="tram rail_urban rail rail_electric rail_fast ship" speed="16.67" length="0.28" shape="3322.86,6642.96 3323.09,6643.04"/>
        <lane id=":-102006_0_1" index="1" disallow="tram rail_urban rail rail_electric rail_fast ship" speed="16.67" length="0.28" shape="3321.78,6645.97 3322.08,6646.08"/>
    </edge>
    <edge id=":-102019_0" function="internal">
        <lane id=":-102019_0_0" index="0" disallow="tram rail_urban rail rail_electric rail_fast ship" speed="16.67" length="0.27" shape="3554.21,6716.93 3554.39,6716.99"/>
        <lane id=":-102019_0_1" index="1" disallow="tram rail_urban rail rail_electric rail_fast ship" speed="16.67" length="0.27" shape="3553.28,6720.00 3553.61,6720.09"/>
    </edge>
    <edge id=":-102038_0" function="internal">
        <lane id=":-102038_0_0" index="0" disallow="tram rail_urban rail rail_electric rail_fast ship" speed="16.67" length="0.63" shape="3942.81,6814.55 3942.91,6814.57 3942.97,6814.58 3943.03,6814.59 3943.13,6814.60"/>
        <lane id=":-102038_0_1" index="1" disallow="tram rail_urban rail rail_electric rail_fast ship" speed="16.67" length="0.63" shape="3942.03,6817.65 3942.31,6817.72 3942.50,6817.76 3942.69,6817.78 3942.97,6817.79"/>
    </edge>
    <edge id=":-102051_0" function="internal">
        <lane id=":-102051_0_0" index="0" disallow="tram rail_urban rail rail_electric rail_fast ship" speed="8.69" length="16.12" shape="4105.13,6816.88 4110.20,6817.19 4113.93,6818.56 4116.34,6820.98 4117.41,6824.47"/>
    </edge>
    <edge id=":-102051_1" function="internal">
        <lane id=":-102051_1_0" index="0" disallow="tram rail_urban rail rail_electric rail_fast ship" speed="7.34" length="11.23" shape="4105.25,6820.08 4108.98,6820.25 4111.73,6821.09 4113.47,6822.61 4114.22,6824.79"/>
    </edge>
    <edge id=":-102051_2" function="internal">
        <lane id=":-102051_2_0" index="0" disallow="tram rail_urban rail rail_electric rail_fast ship" speed="6.52" length="8.63" shape="4105.25,6820.08 4107.58,6820.32 4109.33,6821.23 4110.48,6822.83 4111.04,6825.11"/>
    </edge>
    <edge id=":-102104_0" function="internal">
        <lane id=":-102104_0_0" index="0" disallow="tram rail_urban rail rail_electric rail_fast ship" speed="3.92" length="2.28" shape="4526.00,7791.80 4526.18,7792.38 4526.50,7792.80 4526.96,7793.05 4527.56,7793.15"/>
    </edge>
    <edge id=":-102104_1" function="internal">
        <lane id=":-102104_1_0" index="0" disallow="tram rail_urban rail rail_electric rail_fast ship" speed="6.11" length="6.83" shape="4522.84,7792.30 4523.37,7794.05 4524.33,7795.31 4525.71,7796.07 4527.52,7796.34"/>
    </edge>
    <edge id=":-102104_2" function="internal">
        <lane id=":-102104_2_0" index="0" disallow="tram rail_urban rail rail_electric rail_fast ship" speed="7.70" length="11.38" shape="4519.68,7792.80 4520.56,7795.72 4522.16,7797.82 4524.47,7799.09 4527.49,7799.54"/>
    </edge>
    <edge id=":-102157_0" function="internal">
        <lane id=":-102157_0_0" index="0" disallow="tram rail_urban rail rail_electric rail_fast ship" speed="22.22" length="0.28" shape="5761.09,7806.02 5761.32,7806.02"/>
        <lane id=":-102157_0_1" index="1" disallow="tram rail_urban rail rail_electric rail_fast ship" speed="22.22" length="0.28" shape="5761.05,7809.22 5761.33,7809.22"/>
        <lane id=":-102157_0_2" index="2" disallow="tram rail_urban rail rail_electric rail_fast ship" speed="22.22" length="0.28" shape="5761.01,7812.42 5761.35,7812.42"/>
    </edge>
    <edge id=":-102187_0" function="internal">
        <lane id=":-102187_0_0" index="0" disallow="tram rail_urban rail rail_electric rail_fast ship" speed="22.22" length="0.30" shape="6285.36,7803.63 6285.68,7803.63"/>
        <lane id=":-102187_0_1" index="1" disallow="tram rail_urban rail rail_electric rail_fast ship" speed="22.22" length="0.30" shape="6285.38,7806.83 6285.67,7806.83"/>
        <lane id=":-102187_0_2" index="2" disallow="tram rail_urban rail rail_electric rail_fast ship" speed="22.22" length="0.30" shape="6285.39,7810.03 6285.67,7810.03"/>
    </edge>
    <edge id=":-102430_0" function="internal">
        <lane id=":-102430_0_0" index="0" disallow="tram rail_urban rail rail_electric rail_fast ship" speed="22.22" length="3.28" shape="12457.49,8421.19 12460.96,8421.22"/>
        <lane id=":-102430_0_1" index="1" disallow="tram rail_urban rail rail_electric rail_fast ship" speed="22.22" length="3.28" shape="12457.47,8424.39 12460.75,8424.41"/>
        <lane id=":-102430_0_2" index="2" disallow="tram rail_urban rail rail_electric rail_fast ship" speed="22.22" length="3.28" shape="12457.46,8427.59 12460.55,8427.60"/>
    </edge>
    <edge id=":-102461_0" function="internal">
        <lane id=":-102461_0_0" index="0" disallow="tram rail_urban rail rail_electric rail_fast ship" speed="22.22" length="0.29" shape="13361.79,8421.06 13362.13,8421.04"/>
        <lane id=":-102461_0_1" index="1" disallow="tram rail_urban rail rail_electric rail_fast ship" speed="22.22" length="0.29" shape="13361.97,8424.25 13362.27,8424.24"/>
        <lane id=":-102461_0_2" index="2" disallow="tram rail_urban rail rail_electric rail_fast ship" speed="22.22" length="0.29" shape="13362.15,8427.45 13362.41,8427.44"/>
    </edge>
    <edge id=":-102484_0" function="internal">
        <lane id=":-102484_0_0" index="0" disallow="tram rail_urban rail rail_electric rail_fast ship" speed="22.22" length="3.49" shape="13942.16,8385.89 13943.29,8385.84 13944.06,8385.86 13944.84,8385.91 13945.97,8385.97"/>
        <lane id=":-102484_0_1" index="1" disallow="tram rail_urban rail rail_electric rail_fast ship" speed="22.22" length="3.49" shape="13942.39,8389.08 13943.42,8389.03 13944.13,8389.06 13944.84,8389.11 13945.88,8389.16"/>
        <lane id=":-102484_0_2" index="2" disallow="tram rail_urban rail rail_electric rail_fast ship" speed="22.22" length="3.49" shape="13942.62,8392.27 13943.55,8392.23 13944.20,8392.26 13944.84,8392.31 13945.78,8392.36"/>
    </edge>
    <edge id=":-102515_0" function="internal">
        <lane id=":-102515_0_0" index="0" disallow="tram rail_urban rail rail_electric rail_fast ship" speed="22.22" length="0.29" shape="14681.67,8408.60 14681.87,8408.60"/>
        <lane id=":-102515_0_1" index="1" disallow="tram rail_urban rail rail_electric rail_fast ship" speed="22.22" length="0.29" shape="14681.57,8411.80 14681.86,8411.80"/>
        <lane id=":-102515_0_2" index="2" disallow="tram rail_urban rail rail_electric rail_fast ship" speed="22.22" length="0.29" shape="14681.47,8414.99 14681.84,8415.00"/>
    </edge>
    <edge id=":-102529_0" function="internal">
        <lane id=":-102529_0_0" index="0" disallow="tram rail_urban rail rail_electric rail_fast ship" speed="8.13" length="7.35" shape="14976.15,8409.72 14978.03,8409.92 14979.71,8410.52 14981.20,8411.51 14982.49,8412.88"/>
    </edge>
    <edge id=":-102529_1" function="internal">
        <lane id=":-102529_1_0" index="0" disallow="tram rail_urban rail rail_electric rail_fast ship" speed="6.43" length="4.41" shape="14976.14,8412.92 14977.27,8413.04 14978.28,8413.40 14979.17,8413.99 14979.94,8414.82"/>
    </edge>
    <edge id=":-102529_2" function="internal">
        <lane id=":-102529_2_0" index="0" disallow="tram rail_urban rail rail_electric rail_fast ship" speed="4.09" length="1.47" shape="14976.13,8416.12 14976.50,8416.16 14976.84,8416.28 14977.14,8416.48 14977.39,8416.75"/>
    </edge>
    <edge id=":-102548_0" function="internal">
        <lane id=":-102548_0_0" index="0" disallow="tram rail_urban rail rail_electric rail_fast ship" speed="16.67" length="0.30" shape="15026.33,8882.24 15026.35,8882.55"/>
        <lane id=":-102548_0_1" index="1" disallow="tram rail_urban rail rail_electric rail_fast ship" speed="16.67" length="0.30" shape="15023.14,8882.46 15023.16,8882.75"/>
        <lane id=":-102548_0_2" index="2" disallow="tram rail_urban rail rail_electric rail_fast ship" speed="16.67" length="0.30" shape="15019.95,8882.67 15019.97,8882.96"/>
    </edge>
    <edge id=":-102625_0" function="internal">
        <lane id=":-102625_0_0" index="0" disallow="tram rail_urban rail rail_electric rail_fast ship" speed="22.22" length="0.15" shape="15127.45,10462.45 15127.47,10462.70"/>
        <lane id=":-102625_0_1" index="1" disallow="tram rail_urban rail rail_electric rail_fast ship" speed="22.22" length="0.15" shape="15124.26,10462.71 15124.27,10462.86"/>
        <lane id=":-102625_0_2" index="2" disallow="tram rail_urban rail rail_electric rail_fast ship" speed="22.22" length="0.15" shape="15121.07,10462.98 15121.08,10463.03"/>
    </edge>
    <edge id=":-102645_0" function="internal">
        <lane id=":-102645_0_0" index="0" disallow="tram rail_urban rail rail_electric rail_fast ship" speed="22.22" length="0.29" shape="15167.20,11000.76 15167.22,11000.95"/>
        <lane id=":-102645_0_1" index="1" disallow="tram rail_urban rail rail_electric rail_fast ship" speed="22.22" length="0.29" shape="15164.01,11001.09 15164.05,11001.37"/>
        <lane id=":-102645_0_2" index="2" disallow="tram rail_urban rail rail_electric rail_fast ship" speed="22.22" length="0.29" shape="15160.83,11001.42 15160.87,11001.79"/>
    </edge>
    <edge id=":-102661_0" function="internal">
        <lane id=":-102661_0_0" index="0" disallow="tram rail_urban rail rail_electric rail_fast ship" speed="3.92" length="2.34" shape="15229.10,11472.25 15229.27,11472.86 15229.59,11473.30 15230.07,11473.56 15230.69,11473.65"/>
    </edge>
    <edge id=":-102661_1" function="internal">
        <lane id=":-102661_1_0" index="0" disallow="tram rail_urban rail rail_electric rail_fast ship" speed="6.10" length="7.03" shape="15225.93,11472.67 15226.44,11474.50 15227.40,11475.80 15228.82,11476.59 15230.69,11476.85"/>
    </edge>
    <edge id=":-102661_2" function="internal">
        <lane id=":-102661_2_0" index="0" disallow="tram rail_urban rail rail_electric rail_fast ship" speed="7.69" length="11.72" shape="15222.76,11473.09 15223.60,11476.13 15225.20,11478.31 15227.57,11479.61 15230.69,11480.05"/>
    </edge>
    <edge id=":-102677_0" function="internal">
        <lane id=":-102677_0_0" index="0" disallow="tram rail_urban rail rail_electric rail_fast ship" speed="22.22" length="0.10" shape="15598.05,11473.49 15598.19,11473.49"/>
        <lane id=":-102677_0_1" index="1" disallow="tram rail_urban rail rail_electric rail_fast ship" speed="22.22" length="0.10" shape="15598.05,11476.69 15598.13,11476.69"/>
        <lane id=":-102677_0_2" index="2" disallow="tram rail_urban rail rail_electric rail_fast ship" speed="22.22" length="0.10" shape="15598.05,11479.89 15598.08,11479.89"/>
    </edge>
    <edge id=":-102730_0" function="internal">
        <lane id=":-102730_0_0" index="0" disallow="tram rail_urban rail rail_electric rail_fast ship" speed="22.22" length="0.16" shape="17103.21,11482.49 17103.48,11482.48"/>
        <lane id=":-102730_0_1" index="1" disallow="tram rail_urban rail rail_electric rail_fast ship" speed="22.22" length="0.16" shape="17103.43,11485.68 17103.60,11485.67"/>
        <lane id=":-102730_0_2" index="2" disallow="tram rail_urban rail rail_electric rail_fast ship" speed="22.22" length="0.16" shape="17103.66,11488.87 17103.71,11488.87"/>
    </edge>
    <edge id=":-102757_0" function="internal">
        <lane id=":-102757_0_0" index="0" disallow="tram rail_urban rail rail_electric rail_fast ship" speed="19.45" length="3.78" shape="17627.82,11480.21 17629.08,11480.39 17629.92,11480.60 17630.75,11480.87 17631.97,11481.24"/>
        <lane id=":-102757_0_1" index="1" disallow="tram rail_urban rail rail_electric rail_fast ship" speed="19.45" length="3.78" shape="17627.47,11483.39 17628.58,11483.55 17629.32,11483.75 17630.05,11484.00 17631.13,11484.33"/>
        <lane id=":-102757_0_2" index="2" disallow="tram rail_urban rail rail_electric rail_fast ship" speed="19.45" length="3.78" shape="17627.13,11486.57 17628.09,11486.71 17628.72,11486.89 17629.35,11487.12 17630.28,11487.41"/>
    </edge>
    <edge id=":-104245_0" function="internal">
        <lane id=":-104245_0_0" index="0" disallow="tram rail_urban rail rail_electric rail_fast ship" speed="16.67" length="3.63" shape="50212.30,5448.04 50213.44,5447.67 50214.24,5447.48 50215.05,5447.34 50216.23,5447.12"/>
        <lane id=":-104245_0_1" index="1" disallow="tram rail_urban rail rail_electric rail_fast ship" speed="16.67" length="3.63" shape="50213.38,5451.05 50214.40,5450.72 50215.12,5450.56 50215.85,5450.45 50216.91,5450.24"/>
        <lane id=":-104245_0_2" index="2" disallow="tram rail_urban rail rail_electric rail_fast ship" speed="16.67" length="3.63" shape="50214.46,5454.06 50215.37,5453.78 50216.00,5453.64 50216.65,5453.55 50217.59,5453.37"/>
    </edge>
    <edge id=":-104426_0" function="internal">
        <lane id=":-104426_0_0" index="0" allow="private emergency authority army vip passenger hov taxi bus coach delivery truck trailer motorcycle evehicle custom1 custom2" speed="19.45" length="3.32" shape="54968.10,4725.66 54969.13,4725.26 54969.86,4725.04 54970.60,4724.87 54971.68,4724.60"/>
        <lane id=":-104426_0_1" index="1" allow="private emergency authority army vip passenger hov taxi bus coach delivery truck trailer motorcycle evehicle custom1 custom2" speed="19.45" length="3.32" shape="54969.36,4728.61 54970.27,4728.25 54970.92,4728.07 54971.58,4727.92 54972.54,4727.68"/>
        <lane id=":-104426_0_2" index="2" allow="private emergency authority army vip passenger hov taxi bus coach delivery truck trailer motorcycle evehicle custom1 custom2" speed="19.45" length="3.32" shape="54970.61,4731.55 54971.41,4731.24 54971.98,4731.09 54972.56,4730.97 54973.39,4730.76"/>
    </edge>
    <edge id=":-117209_0" function="internal">
        <lane id=":-117209_0_0" index="0" disallow="tram rail_urban rail rail_electric rail_fast ship" speed="8.41" length="6.20" shape="2493.89,5402.90 2499.49,5405.56"/>
    </edge>
    <edge id=":-117209_1" function="internal">
        <lane id=":-117209_1_0" index="0" disallow="tram rail_urban rail rail_electric rail_fast ship" speed="7.19" length="4.42" shape="2493.89,5402.90 2494.97,5403.62 2495.62,5404.26 2496.03,5405.08 2496.38,5406.33"/>
    </edge>
    <edge id=":-117256_0" function="internal">
        <lane id=":-117256_0_0" index="0" disallow="tram rail_urban rail rail_electric rail_fast ship" speed="6.21" length="5.65" shape="2936.64,5763.64 2937.90,5764.42 2938.78,5765.44 2939.29,5766.68 2939.42,5768.16"/>
    </edge>
    <edge id=":-117256_1" function="internal">
        <lane id=":-117256_1_0" index="0" disallow="tram rail_urban rail rail_electric rail_fast ship" speed="3.97" length="1.88" shape="2935.29,5766.54 2935.71,5766.80 2936.01,5767.14 2936.18,5767.55 2936.22,5768.05"/>
    </edge>
    <edge id=":-117396_0" function="internal">
        <lane id=":-117396_0_0" index="0" disallow="tram rail_urban rail rail_electric rail_fast ship" speed="22.22" length="0.29" shape="4869.73,7797.14 4869.98,7797.14"/>
        <lane id=":-117396_0_1" index="1" disallow="tram rail_urban rail rail_electric rail_fast ship" speed="22.22" length="0.29" shape="4869.69,7800.34 4869.98,7800.34"/>
        <lane id=":-117396_0_2" index="2" disallow="tram rail_urban rail rail_electric rail_fast ship" speed="22.22" length="0.29" shape="4869.65,7803.54 4869.98,7803.54"/>
    </edge>
    <edge id=":-117407_0" function="internal">
        <lane id=":-117407_0_0" index="0" disallow="tram rail_urban rail rail_electric rail_fast ship" speed="22.22" length="0.29" shape="5092.12,7796.87 5092.46,7796.87"/>
        <lane id=":-117407_0_1" index="1" disallow="tram rail_urban rail rail_electric rail_fast ship" speed="22.22" length="0.29" shape="5092.13,7800.07 5092.42,7800.07"/>
        <lane id=":-117407_0_2" index="2" disallow="tram rail_urban rail rail_electric rail_fast ship" speed="22.22" length="0.29" shape="5092.13,7803.27 5092.37,7803.27"/>
    </edge>
    <edge id=":-117421_0" function="internal">
        <lane id=":-117421_0_0" index="0" disallow="tram rail_urban rail rail_electric rail_fast ship" speed="22.22" length="0.30" shape="5358.23,7800.69 5358.53,7800.69"/>
        <lane id=":-117421_0_1" index="1" disallow="tram rail_urban rail rail_electric rail_fast ship" speed="22.22" length="0.30" shape="5358.19,7803.89 5358.49,7803.89"/>
        <lane id=":-117421_0_2" index="2" disallow="tram rail_urban rail rail_electric rail_fast ship" speed="22.22" length="0.30" shape="5358.14,7807.09 5358.44,7807.09"/>
    </edge>
    <edge id=":-117437_0" function="internal">
        <lane id=":-117437_0_0" index="0" disallow="tram rail_urban rail rail_electric rail_fast ship" speed="22.22" length="0.30" shape="6524.25,7804.16 6524.51,7804.16"/>
        <lane id=":-117437_0_1" index="1" disallow="tram rail_urban rail rail_electric rail_fast ship" speed="22.22" length="0.30" shape="6524.24,7807.36 6524.54,7807.36"/>
        <lane id=":-117437_0_2" index="2" disallow="tram rail_urban rail rail_electric rail_fast ship" speed="22.22" length="0.30" shape="6524.23,7810.56 6524.56,7810.56"/>
    </edge>
    <edge id=":-117451_0" function="internal">
        <lane id=":-117451_0_0" index="0" disallow="tram rail_urban rail rail_electric rail_fast ship" speed="22.22" length="0.12" shape="6754.58,7802.46 6754.77,7802.46"/>
        <lane id=":-117451_0_1" index="1" disallow="tram rail_urban rail rail_electric rail_fast ship" speed="22.22" length="0.12" shape="6754.60,7805.66 6754.72,7805.66"/>
        <lane id=":-117451_0_2" index="2" disallow="tram rail_urban rail rail_electric rail_fast ship" speed="22.22" length="0.12" shape="6754.63,7808.86 6754.67,7808.86"/>
    </edge>
    <edge id=":-117471_0" function="internal">
        <lane id=":-117471_0_0" index="0" disallow="tram rail_urban rail rail_electric rail_fast ship" speed="22.22" length="0.34" shape="13120.11,8434.73 13120.34,8434.72"/>
        <lane id=":-117471_0_1" index="1" disallow="tram rail_urban rail rail_electric rail_fast ship" speed="22.22" length="0.34" shape="13120.19,8437.93 13120.53,8437.91"/>
        <lane id=":-117471_0_2" index="2" disallow="tram rail_urban rail rail_electric rail_fast ship" speed="22.22" length="0.34" shape="13120.26,8441.13 13120.71,8441.11"/>
    </edge>
    <edge id=":-117497_0" function="internal">
        <lane id=":-117497_0_0" index="0" disallow="tram rail_urban rail rail_electric rail_fast ship" speed="22.22" length="0.30" shape="13591.08,8411.05 13591.28,8411.04"/>
        <lane id=":-117497_0_1" index="1" disallow="tram rail_urban rail rail_electric rail_fast ship" speed="22.22" length="0.30" shape="13591.22,8414.24 13591.51,8414.23"/>
        <lane id=":-117497_0_2" index="2" disallow="tram rail_urban rail rail_electric rail_fast ship" speed="22.22" length="0.30" shape="13591.36,8417.44 13591.74,8417.42"/>
    </edge>
    <edge id=":-117518_0" function="internal">
        <lane id=":-117518_0_0" index="0" disallow="tram rail_urban rail rail_electric rail_fast ship" speed="16.67" length="0.30" shape="15015.02,8710.96 15015.03,8711.23"/>
        <lane id=":-117518_0_1" index="1" disallow="tram rail_urban rail rail_electric rail_fast ship" speed="16.67" length="0.30" shape="15011.82,8711.15 15011.84,8711.44"/>
        <lane id=":-117518_0_2" index="2" disallow="tram rail_urban rail rail_electric rail_fast ship" speed="16.67" length="0.30" shape="15008.63,8711.33 15008.65,8711.65"/>
    </edge>
    <edge id=":-117530_0" function="internal">
        <lane id=":-117530_0_0" index="0" disallow="tram rail_urban rail rail_electric rail_fast ship" speed="16.67" length="0.30" shape="15038.50,9068.43 15038.52,9068.72"/>
        <lane id=":-117530_0_1" index="1" disallow="tram rail_urban rail rail_electric rail_fast ship" speed="16.67" length="0.30" shape="15035.31,9068.64 15035.33,9068.94"/>
        <lane id=":-117530_0_2" index="2" disallow="tram rail_urban rail rail_electric rail_fast ship" speed="16.67" length="0.30" shape="15032.12,9068.85 15032.14,9069.16"/>
    </edge>
    <edge id=":-117539_0" function="internal">
        <lane id=":-117539_0_0" index="0" disallow="tram rail_urban rail rail_electric rail_fast ship" speed="19.45" length="0.29" shape="15053.21,9283.69 15053.23,9284.03"/>
        <lane id=":-117539_0_1" index="1" disallow="tram rail_urban rail rail_electric rail_fast ship" speed="19.45" length="0.29" shape="15050.02,9283.91 15050.04,9284.20"/>
        <lane id=":-117539_0_2" index="2" disallow="tram rail_urban rail rail_electric rail_fast ship" speed="19.45" length="0.29" shape="15046.83,9284.13 15046.84,9284.38"/>
    </edge>
    <edge id=":-117559_0" function="internal">
        <lane id=":-117559_0_0" index="0" disallow="tram rail_urban rail rail_electric rail_fast ship" speed="22.22" length="0.30" shape="15082.50,9818.16 15082.52,9818.47"/>
        <lane id=":-117559_0_1" index="1" disallow="tram rail_urban rail rail_electric rail_fast ship" speed="22.22" length="0.30" shape="15079.31,9818.34 15079.32,9818.64"/>
        <lane id=":-117559_0_2" index="2" disallow="tram rail_urban rail rail_electric rail_fast ship" speed="22.22" length="0.30" shape="15076.11,9818.51 15076.13,9818.80"/>
    </edge>
    <edge id=":-117566_0" function="internal">
        <lane id=":-117566_0_0" index="0" disallow="tram rail_urban rail rail_electric rail_fast ship" speed="22.22" length="0.33" shape="15096.10,10085.00 15096.11,10085.23"/>
        <lane id=":-117566_0_1" index="1" disallow="tram rail_urban rail rail_electric rail_fast ship" speed="22.22" length="0.33" shape="15092.90,10085.16 15092.92,10085.49"/>
        <lane id=":-117566_0_2" index="2" disallow="tram rail_urban rail rail_electric rail_fast ship" speed="22.22" length="0.33" shape="15089.71,10085.33 15089.73,10085.76"/>
    </edge>
    <edge id=":-117601_0" function="internal">
        <lane id=":-117601_0_0" index="0" disallow="tram rail_urban rail rail_electric rail_fast ship" speed="22.22" length="0.30" shape="16189.67,11483.85 16189.94,11483.85"/>